New "Loadshape.Irradia" 8760 1.0 mult=(0.00000,0.00000,0.00000,0.00000,0.00147,0.08750,0.32849,0.58030,0.70711,0.87513,0.97044,0.99495,0.95991,0.86066,0.74227,0.55217,0.31245,0.08942,0.01361,0.00010,0.00000,0.00000,0.00000,0.00000,0.00000,0.00000,0.00000,0.00000,0.00000,0.08455,0.32136,0.56633,0.74952,0.87891,0.94933,0.95952,0.93780,0.85496,0.73560,0.54497,0.31237,0.08562,0.01211,0.00010,0.00000,0.00000,0.00000,0.00000,0.00000,0.00000,0.00000,0.00000,0.00131,0.08194,0.31322,0.56610,0.75642,0.88370,0.95863,0.97881,0.95024,0.86631,0.72180,0.53832,0.30622,0.08709,0.01173,0.00000,0.00000,0.00000,0.00000,0.00000,0.00000,0.00000,0.00000,0.00000,0.00612,0.09959,0.24872,0.54273,0.69116,0.76566,0.87847,0.93591,0.89030,0.57153,0.56235,0.39809,0.08252,0.06769,0.00947,0.00000,0.00000,0.00000,0.00000,0.00000,0.00000,0.00000,0.00000,0.00000,0.00132,0.04745,0.14534,0.03353,0.04452,0.15128,0.25783,0.56890,0.50692,0.58968,0.66526,0.50905,0.30855,0.09132,0.01346,0.00018,0.00000,0.00000,0.00000,0.00000,0.00000,0.00000,0.00000,0.00000,0.00000,0.07422,0.27850,0.53802,0.72514,0.70450,0.72531,0.81598,0.78822,0.59293,0.58940,0.46308,0.27807,0.07029,0.01122,0.00018,0.00000,0.00000,0.00000,0.00000,0.00000,0.00000,0.00000,0.00000,0.00000,0.05377,0.22112,0.40312,0.72867,0.84163,0.81325,0.92670,0.88034,0.86181,0.72875,0.53954,0.28066,0.08038,0.01257,0.00017,0.00000,0.00000,0.00000,0.00000,0.00000,0.00000,0.00000,0.00000,0.00000,0.07568,0.31016,0.54742,0.72171,0.83818,0.91997,0.94233,0.93418,0.85151,0.72231,0.54419,0.31606,0.08995,0.01222,0.00017,0.00000,0.00000,0.00000,0.00000,0.00000,0.00000,0.00000,0.00000,0.00000,0.06824,0.28859,0.52834,0.70140,0.83297,0.89848,0.84682,0.64373,0.57932,0.35228,0.19960,0.11178,0.03243,0.00679,0.00000,0.00000,0.00000,0.00000,0.00000,0.00000,0.00000,0.00000,0.00000,0.00000,0.06708,0.28396,0.51684,0.68383,0.80839,0.88516,0.93690,0.75124,0.76453,0.61265,0.44426,0.30063,0.08838,0.00854,0.00017,0.00000,0.00000,0.00000,0.00000,0.00000,0.00000,0.00000,0.00000,0.00000,0.06489,0.21498,0.51473,0.67547,0.86570,0.73137,0.66737,0.64679,0.84823,0.53519,0.54965,0.21622,0.07403,0.00800,0.00000,0.00000,0.00000,0.00000,0.00000,0.00000,0.00000,0.00000,0.00000,0.00000,0.00814,0.05092,0.04678,0.16562,0.31149,0.27560,0.29447,0.33820,0.25034,0.23410,0.15914,0.12175,0.05587,0.00851,0.00000,0.00000,0.00000,0.00000,0.00000,0.00000,0.00000,0.00000,0.00000,0.00000,0.04903,0.19975,0.39986,0.47152,0.55611,0.64103,0.71734,0.54661,0.40711,0.39139,0.26100,0.25839,0.09359,0.01470,0.00010,0.00000,0.00000,0.00000,0.00000,0.00000,0.00000,0.00000,0.00000,0.00000,0.06298,0.28504,0.55479,0.76142,0.90924,0.97055,0.98411,0.96439,0.90552,0.76470,0.56722,0.32270,0.09431,0.01372,0.00018,0.00000,0.00000,0.00000,0.00000,0.00000,0.00000,0.00000,0.00000,0.00000,0.05960,0.27596,0.53005,0.71995,0.84697,0.92404,0.96829,0.77522,0.79125,0.59620,0.39898,0.14891,0.06589,0.01333,0.00000,0.00000,0.00000,0.00000,0.00000,0.00000,0.00000,0.00000,0.00000,0.00000,0.01055,0.05006,0.13798,0.16615,0.20252,0.10983,0.13973,0.27116,0.23742,0.27272,0.45593,0.24328,0.07974,0.00612,0.00000,0.00000,0.00000,0.00000,0.00000,0.00000,0.00000,0.00000,0.00000,0.00000,0.04161,0.13994,0.20687,0.22873,0.43171,0.45566,0.60049,0.30838,0.49838,0.59717,0.52444,0.30895,0.10968,0.01838,0.00009,0.00000,0.00000,0.00000,0.00000,0.00000,0.00000,0.00000,0.00000,0.00000,0.05662,0.28681,0.54648,0.74228,0.89907,0.95225,0.93665,0.79205,0.81071,0.50572,0.56793,0.25826,0.09938,0.01187,0.00019,0.00000,0.00000,0.00000,0.00000,0.00000,0.00000,0.00000,0.00000,0.00000,0.02456,0.17250,0.53751,0.76226,0.91870,0.97000,0.98187,0.96698,0.91160,0.77563,0.57797,0.33027,0.09403,0.01248,0.00010,0.00000,0.00000,0.00000,0.00000,0.00000,0.00000,0.00000,0.00000,0.00000,0.05319,0.22219,0.42503,0.63310,0.76039,0.89040,0.84169,0.74216,0.67007,0.72053,0.55169,0.27935,0.11046,0.01615,0.00010,0.00000,0.00000,0.00000,0.00000,0.00000,0.00000,0.00000,0.00000,0.00000,0.03141,0.15745,0.47379,0.54961,0.57113,0.62122,0.62189,0.48362,0.49009,0.47696,0.35315,0.22311,0.09300,0.01484,0.00018,0.00000,0.00000,0.00000,0.00000,0.00000,0.00000,0.00000,0.00000,0.00000,0.03005,0.14187,0.50314,0.67083,0.85944,0.81075,0.93582,0.70186,0.36912,0.50361,0.43920,0.23821,0.09458,0.01375,0.00019,0.00000,0.00000,0.00000,0.00000,0.00000,0.00000,0.00000,0.00000,0.00000,0.03951,0.25357,0.50374,0.70063,0.83280,0.91910,0.95258,0.92366,0.84024,0.72755,0.54570,0.31147,0.08759,0.01105,0.00017,0.00000,0.00000,0.00000,0.00000,0.00000,0.00000,0.00000,0.00000,0.00000,0.02973,0.22347,0.53555,0.56462,0.62908,0.84946,0.89247,0.42558,0.06654,0.12292,0.05170,0.07663,0.06574,0.01264,0.00000,0.00000,0.00000,0.00000,0.00000,0.00000,0.00000,0.00000,0.00000,0.00000,0.04306,0.25175,0.49656,0.62591,0.56614,0.69465,0.89942,0.89803,0.86298,0.69524,0.30879,0.27539,0.08658,0.01066,0.00000,0.00000,0.00000,0.00000,0.00000,0.00000,0.00000,0.00000,0.00000,0.00000,0.03715,0.19050,0.22144,0.20227,0.38114,0.65906,0.24334,0.43992,0.39719,0.29615,0.28556,0.12821,0.07975,0.00995,0.00000,0.00000,0.00000,0.00000,0.00000,0.00000,0.00000,0.00000,0.00000,0.00000,0.00440,0.02162,0.05028,0.13008,0.18653,0.44817,0.52716,0.36031,0.48952,0.16861,0.09799,0.10567,0.04527,0.00676,0.00000,0.00000,0.00000,0.00000,0.00000,0.00000,0.00000,0.00000,0.00000,0.00000,0.01624,0.14696,0.25626,0.65488,0.64588,0.52581,0.59068,0.30506,0.04868,0.03772,0.00560,0.00960,0.00834,0.00513,0.00000,0.00000,0.00000,0.00000,0.00000,0.00000,0.00000,0.00000,0.00000,0.00000,0.03688,0.28093,0.31162,0.33291,0.67581,0.79932,0.56847,0.25605,0.35794,0.50095,0.10197,0.11000,0.04675,0.00695,0.00000,0.00000,0.00000,0.00000,0.00000,0.00000,0.00000,0.00000,0.00000,0.00000,0.04076,0.23110,0.48413,0.68769,0.78036,0.56475,0.66787,0.34156,0.55623,0.60556,0.36121,0.10127,0.00581,0.00097,0.00000,0.00000,0.00000,0.00000,0.00000,0.00000,0.00000,0.00000,0.00000,0.00000,0.02404,0.13196,0.13377,0.17287,0.29964,0.32057,0.33346,0.24461,0.28852,0.38785,0.19424,0.12390,0.10124,0.01247,0.00000,0.00000,0.00000,0.00000,0.00000,0.00000,0.00000,0.00000,0.00000,0.00000,0.02116,0.15275,0.34403,0.46355,0.50201,0.60359,0.67183,0.62782,0.65761,0.70976,0.50031,0.28852,0.07145,0.01382,0.00000,0.00000,0.00000,0.00000,0.00000,0.00000,0.00000,0.00000,0.00000,0.00000,0.03300,0.20337,0.38902,0.62327,0.72058,0.44186,0.44064,0.09050,0.40172,0.48840,0.27155,0.23424,0.08181,0.01084,0.00000,0.00000,0.00000,0.00000,0.00000,0.00000,0.00000,0.00000,0.00000,0.00000,0.00821,0.01149,0.02455,0.08257,0.02634,0.01582,0.00541,0.02585,0.12493,0.22574,0.10658,0.05785,0.07834,0.01033,0.00000,0.00000,0.00000,0.00000,0.00000,0.00000,0.00000,0.00000,0.00000,0.00000,0.00957,0.08187,0.24732,0.63894,0.74868,0.72472,0.78579,0.57577,0.85586,0.69828,0.37654,0.38953,0.08422,0.00877,0.00000,0.00000,0.00000,0.00000,0.00000,0.00000,0.00000,0.00000,0.00000,0.00000,0.02941,0.16764,0.29749,0.47675,0.68641,0.74061,0.76373,0.65703,0.73300,0.76645,0.47584,0.25131,0.09629,0.01433,0.00000,0.00000,0.00000,0.00000,0.00000,0.00000,0.00000,0.00000,0.00000,0.00000,0.02957,0.23086,0.50264,0.71331,0.84325,0.93573,0.95683,0.93127,0.83580,0.73781,0.54754,0.31156,0.08188,0.00918,0.00000,0.00000,0.00000,0.00000,0.00000,0.00000,0.00000,0.00000,0.00000,0.00000,0.02650,0.22665,0.49041,0.68719,0.82378,0.90595,0.95088,0.92585,0.85009,0.71849,0.54033,0.30190,0.07902,0.00866,0.00000,0.00000,0.00000,0.00000,0.00000,0.00000,0.00000,0.00000,0.00000,0.00000,0.01808,0.12278,0.48392,0.69961,0.83477,0.90356,0.92306,0.91071,0.83431,0.70986,0.53523,0.30912,0.08516,0.00850,0.00000,0.00000,0.00000,0.00000,0.00000,0.00000,0.00000,0.00000,0.00000,0.00000,0.02305,0.08594,0.19108,0.58480,0.75941,0.86480,0.81568,0.78660,0.62805,0.59985,0.44897,0.26712,0.08626,0.00696,0.00000,0.00000,0.00000,0.00000,0.00000,0.00000,0.00000,0.00000,0.00000,0.00000,0.03296,0.19761,0.48767,0.63464,0.72655,0.39006,0.27746,0.31755,0.56805,0.67430,0.48839,0.31413,0.08931,0.01060,0.00000,0.00000,0.00000,0.00000,0.00000,0.00000,0.00000,0.00000,0.00000,0.00000,0.01066,0.11668,0.24852,0.48153,0.78871,0.76257,0.71839,0.47588,0.50231,0.02702,0.00642,0.00926,0.01301,0.00530,0.00000,0.00000,0.00000,0.00000,0.00000,0.00000,0.00000,0.00000,0.00000,0.00000,0.00081,0.05535,0.18875,0.41766,0.39206,0.62455,0.60670,0.50622,0.32109,0.06853,0.01420,0.01939,0.02017,0.00644,0.00000,0.00000,0.00000,0.00000,0.00000,0.00000,0.00000,0.00000,0.00000,0.00000,0.02103,0.20751,0.46761,0.66370,0.82504,0.80396,0.86250,0.77659,0.35397,0.31058,0.18409,0.20046,0.06579,0.00890,0.00000,0.00000,0.00000,0.00000,0.00000,0.00000,0.00000,0.00000,0.00000,0.00000,0.05277,0.03669,0.05443,0.15113,0.32401,0.62738,0.89531,0.88382,0.66016,0.45812,0.51138,0.26391,0.09920,0.00811,0.00000,0.00000,0.00000,0.00000,0.00000,0.00000,0.00000,0.00000,0.00000,0.00000,0.02044,0.25241,0.51847,0.51853,0.77651,0.83844,0.91969,0.89737,0.54323,0.40524,0.05989,0.11607,0.06213,0.00707,0.00000,0.00000,0.00000,0.00000,0.00000,0.00000,0.00000,0.00000,0.00000,0.00000,0.01993,0.13754,0.17826,0.22297,0.75830,0.81132,0.80707,0.76449,0.63572,0.53412,0.28494,0.29062,0.06983,0.00775,0.00000,0.00000,0.00000,0.00000,0.00000,0.00000,0.00000,0.00000,0.00000,0.00000,0.01834,0.20695,0.48073,0.67496,0.84451,0.82053,0.99257,0.96261,0.65366,0.59537,0.52138,0.28932,0.06658,0.00562,0.00000,0.00000,0.00000,0.00000,0.00000,0.00000,0.00000,0.00000,0.00000,0.00000,0.00889,0.11308,0.33822,0.41006,0.47511,0.54320,0.59307,0.48770,0.51376,0.73134,0.51750,0.29265,0.06348,0.00506,0.00000,0.00000,0.00000,0.00000,0.00000,0.00000,0.00000,0.00000,0.00000,0.00000,0.01652,0.19902,0.46308,0.66143,0.82649,0.92616,0.93616,0.90755,0.82863,0.69927,0.50338,0.27597,0.05663,0.00368,0.00000,0.00000,0.00000,0.00000,0.00000,0.00000,0.00000,0.00000,0.00000,0.00000,0.01512,0.19328,0.45103,0.64886,0.78954,0.87316,0.92433,0.69860,0.68255,0.69033,0.49654,0.27326,0.06316,0.00448,0.00000,0.00000,0.00000,0.00000,0.00000,0.00000,0.00000,0.00000,0.00000,0.00000,0.00172,0.04689,0.17656,0.56409,0.82094,0.89678,0.91907,0.90592,0.79653,0.68351,0.53826,0.26567,0.06097,0.00427,0.00000,0.00000,0.00000,0.00000,0.00000,0.00000,0.00000,0.00000,0.00000,0.00000,0.01212,0.06658,0.37930,0.52606,0.69172,0.59089,0.48886,0.30787,0.28831,0.51401,0.49075,0.21723,0.07171,0.00406,0.00000,0.00000,0.00000,0.00000,0.00000,0.00000,0.00000,0.00000,0.00000,0.00000,0.00723,0.16167,0.22243,0.25534,0.55143,0.60102,0.74566,0.57034,0.32095,0.08535,0.11759,0.03862,0.02838,0.00112,0.00000,0.00000,0.00000,0.00000,0.00000,0.00000,0.00000,0.00000,0.00000,0.00000,0.01070,0.17029,0.44873,0.66879,0.82238,0.90910,0.93638,0.91877,0.84088,0.70523,0.51370,0.26076,0.05466,0.00356,0.00000,0.00000,0.00000,0.00000,0.00000,0.00000,0.00000,0.00000,0.00000,0.00000,0.01220,0.19060,0.46537,0.68916,0.83897,0.92512,0.95058,0.93314,0.84714,0.70271,0.50797,0.26056,0.05212,0.00339,0.00000,0.00000,0.00000,0.00000,0.00000,0.00000,0.00000,0.00000,0.00000,0.00000,0.01104,0.18116,0.44109,0.66369,0.81145,0.89678,0.92827,0.90627,0.82107,0.68352,0.49395,0.25295,0.05071,0.00296,0.00000,0.00000,0.00000,0.00000,0.00000,0.00000,0.00000,0.00000,0.00000,0.00000,0.00884,0.17036,0.43123,0.65239,0.81070,0.89958,0.92548,0.91113,0.84109,0.67209,0.50883,0.24459,0.05015,0.00282,0.00000,0.00000,0.00000,0.00000,0.00000,0.00000,0.00000,0.00000,0.00000,0.00000,0.00821,0.16288,0.42578,0.54759,0.58146,0.71012,0.79410,0.71454,0.60051,0.69000,0.39488,0.20385,0.05408,0.00280,0.00000,0.00000,0.00000,0.00000,0.00000,0.00000,0.00000,0.00000,0.00000,0.00000,0.00434,0.09071,0.41161,0.63704,0.66346,0.57981,0.50889,0.52403,0.69932,0.61655,0.33803,0.18763,0.05352,0.00214,0.00000,0.00000,0.00000,0.00000,0.00000,0.00000,0.00000,0.00000,0.00000,0.00000,0.00435,0.11588,0.35649,0.60053,0.75822,0.74332,0.73654,0.62875,0.72162,0.51615,0.40481,0.21022,0.04721,0.00120,0.00000,0.00000,0.00000,0.00000,0.00000,0.00000,0.00000,0.00000,0.00000,0.00000,0.00213,0.07936,0.20343,0.38899,0.61822,0.54226,0.55775,0.47608,0.72883,0.68080,0.44430,0.16689,0.04266,0.00147,0.00000,0.00000,0.00000,0.00000,0.00000,0.00000,0.00000,0.00000,0.00000,0.00000,0.00214,0.05523,0.15280,0.25200,0.28754,0.49613,0.39241,0.15344,0.21531,0.55702,0.19144,0.02383,0.02932,0.00084,0.00000,0.00000,0.00000,0.00000,0.00000,0.00000,0.00000,0.00000,0.00000,0.00000,0.00766,0.05416,0.04392,0.19328,0.44658,0.34142,0.71277,0.44944,0.79494,0.51412,0.32799,0.13218,0.04339,0.00126,0.00000,0.00000,0.00000,0.00000,0.00000,0.00000,0.00000,0.00000,0.00000,0.00000,0.00000,0.13134,0.31193,0.51404,0.72835,0.77212,0.64312,0.91840,0.76952,0.70495,0.48724,0.24544,0.04021,0.00178,0.00000,0.00000,0.00000,0.00000,0.00000,0.00000,0.00000,0.00000,0.00000,0.00000,0.00544,0.17394,0.44926,0.66824,0.82018,0.81213,0.85074,0.86252,0.79128,0.68336,0.48392,0.23112,0.03826,0.00135,0.00000,0.00000,0.00000,0.00000,0.00000,0.00000,0.00000,0.00000,0.00000,0.00000,0.00497,0.17093,0.43871,0.65129,0.79921,0.89204,0.89225,0.78725,0.71156,0.58687,0.47528,0.22345,0.02837,0.00095,0.00000,0.00000,0.00000,0.00000,0.00000,0.00000,0.00000,0.00000,0.00000,0.00000,0.00114,0.08631,0.18199,0.48234,0.83548,0.76729,0.86428,0.79051,0.80640,0.59627,0.47261,0.20098,0.03448,0.00110,0.00000,0.00000,0.00000,0.00000,0.00000,0.00000,0.00000,0.00000,0.00000,0.00000,0.00600,0.12125,0.41235,0.59092,0.72663,0.87360,0.79178,0.88411,0.80401,0.60991,0.42847,0.21346,0.03384,0.00092,0.00000,0.00000,0.00000,0.00000,0.00000,0.00000,0.00000,0.00000,0.00000,0.00000,0.00396,0.16054,0.42600,0.64125,0.78557,0.87544,0.93980,0.87038,0.81835,0.67060,0.45748,0.21240,0.02913,0.00066,0.00000,0.00000,0.00000,0.00000,0.00000,0.00000,0.00000,0.00000,0.00000,0.00000,0.01019,0.13752,0.34626,0.56620,0.79087,0.86759,0.88953,0.87060,0.79498,0.51966,0.41772,0.17305,0.02804,0.00035,0.00000,0.00000,0.00000,0.00000,0.00000,0.00000,0.00000,0.00000,0.00000,0.00000,0.00218,0.15322,0.40873,0.63020,0.77527,0.85638,0.87576,0.85108,0.76884,0.62971,0.43214,0.19315,0.02951,0.00044,0.00000,0.00000,0.00000,0.00000,0.00000,0.00000,0.00000,0.00000,0.00000,0.00000,0.00190,0.14359,0.39223,0.60190,0.75012,0.83243,0.85916,0.82285,0.69271,0.61901,0.41770,0.18480,0.02905,0.00049,0.00000,0.00000,0.00000,0.00000,0.00000,0.00000,0.00000,0.00000,0.00000,0.00000,0.00160,0.12065,0.33895,0.55468,0.75044,0.85703,0.88191,0.86787,0.74715,0.53766,0.41841,0.18244,0.02651,0.00038,0.00000,0.00000,0.00000,0.00000,0.00000,0.00000,0.00000,0.00000,0.00000,0.00000,0.00132,0.08727,0.38403,0.58906,0.73573,0.80854,0.82470,0.70220,0.55323,0.56040,0.38548,0.12112,0.01905,0.00019,0.00000,0.00000,0.00000,0.00000,0.00000,0.00000,0.00000,0.00000,0.00000,0.00000,0.00000,0.15761,0.26330,0.50753,0.69766,0.60657,0.45502,0.58376,0.54889,0.40234,0.40887,0.06360,0.02777,0.00022,0.00000,0.00000,0.00000,0.00000,0.00000,0.00000,0.00000,0.00000,0.00000,0.00000,0.00000,0.02992,0.09623,0.19404,0.30256,0.44924,0.40859,0.44122,0.38479,0.55360,0.29322,0.23153,0.02639,0.00020,0.00000,0.00000,0.00000,0.00000,0.00000,0.00000,0.00000,0.00000,0.00000,0.00000,0.00000,0.05683,0.22815,0.51654,0.79012,0.87908,0.89822,0.85497,0.73960,0.59634,0.35539,0.16413,0.02772,0.00028,0.00000,0.00000,0.00000,0.00000,0.00000,0.00000,0.00000,0.00000,0.00000,0.00000,0.00481,0.13966,0.39536,0.53975,0.68064,0.62503,0.89799,0.82840,0.71543,0.48666,0.31427,0.16454,0.01780,0.00018,0.00000,0.00000,0.00000,0.00000,0.00000,0.00000,0.00000,0.00000,0.00000,0.00000,0.00000,0.03146,0.07603,0.13329,0.27896,0.30606,0.36420,0.47037,0.33048,0.26961,0.14642,0.05386,0.01178,0.00019,0.00000,0.00000,0.00000,0.00000,0.00000,0.00000,0.00000,0.00000,0.00000,0.00000,0.00000,0.02419,0.08315,0.15062,0.17467,0.33200,0.49022,0.32043,0.31820,0.41746,0.28179,0.11916,0.02115,0.00019,0.00000,0.00000,0.00000,0.00000,0.00000,0.00000,0.00000,0.00000,0.00000,0.00000,0.00000,0.00000,0.02706,0.09130,0.26903,0.19905,0.29036,0.23244,0.21539,0.22492,0.15745,0.05342,0.01067,0.00019,0.00000,0.00000,0.00000,0.00000,0.00000,0.00000,0.00000,0.00000,0.00000,0.00000,0.00000,0.06151,0.15087,0.36192,0.43818,0.46403,0.50138,0.85719,0.57877,0.53324,0.33265,0.14135,0.01621,0.00019,0.00000,0.00000,0.00000,0.00000,0.00000,0.00000,0.00000,0.00000,0.00000,0.00000,0.00000,0.03261,0.12153,0.27324,0.44871,0.82849,0.83533,0.80279,0.71436,0.57091,0.30290,0.07961,0.01609,0.00000,0.00000,0.00000,0.00000,0.00000,0.00000,0.00000,0.00000,0.00000,0.00000,0.00000,0.00071,0.02947,0.11599,0.34191,0.39573,0.10888,0.48919,0.10811,0.06278,0.20763,0.11901,0.04615,0.01104,0.00000,0.00000,0.00000,0.00000,0.00000,0.00000,0.00000,0.00000,0.00000,0.00000,0.00000,0.00000,0.03384,0.08922,0.16076,0.24787,0.36191,0.32715,0.26367,0.21181,0.10727,0.03949,0.02894,0.00306,0.00000,0.00000,0.00000,0.00000,0.00000,0.00000,0.00000,0.00000,0.00000,0.00000,0.00000,0.00000,0.02387,0.09207,0.25069,0.63914,0.68698,0.70474,0.74641,0.65522,0.60490,0.37165,0.17520,0.01770,0.00000,0.00000,0.00000,0.00000,0.00000,0.00000,0.00000,0.00000,0.00000,0.00000,0.00000,0.00000,0.05973,0.23809,0.46134,0.59278,0.48226,0.70916,0.75543,0.69371,0.58177,0.34939,0.15234,0.01277,0.00000,0.00000,0.00000,0.00000,0.00000,0.00000,0.00000,0.00000,0.00000,0.00000,0.00000,0.00140,0.06675,0.24981,0.55253,0.79251,0.88243,0.89757,0.84868,0.72841,0.57516,0.34090,0.14971,0.02132,0.00019,0.00000,0.00000,0.00000,0.00000,0.00000,0.00000,0.00000,0.00000,0.00000,0.00000,0.00311,0.11977,0.37507,0.53127,0.66273,0.64655,0.86937,0.82796,0.73240,0.51069,0.32731,0.17930,0.02473,0.00028,0.00000,0.00000,0.00000,0.00000,0.00000,0.00000,0.00000,0.00000,0.00000,0.00000,0.00000,0.00000,0.00000,0.00000,0.00000,0.33625,0.81001,0.71158,0.70503,0.42871,0.24687,0.10617,0.00981,0.00000,0.00000,0.00000,0.00000,0.00000,0.00000,0.00000,0.00000,0.00000,0.00000,0.00000,0.00000,0.03028,0.10512,0.12366,0.16010,0.24878,0.28055,0.43899,0.63471,0.56614,0.37798,0.12945,0.01048,0.00000,0.00000,0.00000,0.00000,0.00000,0.00000,0.00000,0.00000,0.00000,0.00000,0.00000,0.00000,0.02600,0.08173,0.25807,0.43317,0.46022,0.49054,0.47732,0.30767,0.38870,0.31537,0.12937,0.01225,0.00000,0.00000,0.00000,0.00000,0.00000,0.00000,0.00000,0.00000,0.00000,0.00000,0.00000,0.00000,0.11459,0.37849,0.59498,0.73878,0.82477,0.84535,0.80347,0.70201,0.55590,0.34351,0.10653,0.00987,0.00000,0.00000,0.00000,0.00000,0.00000,0.00000,0.00000,0.00000,0.00000,0.00000,0.00000,0.00000,0.11191,0.37406,0.59200,0.73786,0.81234,0.83441,0.78769,0.67328,0.45352,0.31549,0.12438,0.00718,0.00000,0.00000,0.00000,0.00000,0.00000,0.00000,0.00000,0.00000,0.00000,0.00000,0.00000,0.00000,0.00000,0.00000,0.00000,0.14487,0.18372,0.27652,0.39907,0.49385,0.42828,0.33035,0.11811,0.00849,0.00000,0.00000,0.00000,0.00000,0.00000,0.00000,0.00000,0.00000,0.00000,0.00000,0.00000,0.00000,0.11886,0.39620,0.63453,0.78799,0.87491,0.90746,0.84970,0.75534,0.59660,0.36861,0.11628,0.00775,0.00000,0.00000,0.00000,0.00000,0.00000,0.00000,0.00000,0.00000,0.00000,0.00000,0.00000,0.00142,0.11237,0.37422,0.59845,0.75456,0.84451,0.86570,0.82689,0.72534,0.56416,0.34447,0.10779,0.00778,0.00000,0.00000,0.00000,0.00000,0.00000,0.00000,0.00000,0.00000,0.00000,0.00000,0.00000,0.00000,0.10612,0.36868,0.58724,0.74452,0.76834,0.47552,0.44911,0.37847,0.35061,0.31081,0.07204,0.00827,0.00000,0.00000,0.00000,0.00000,0.00000,0.00000,0.00000,0.00000,0.00000,0.00000,0.00000,0.00000,0.08519,0.30311,0.53661,0.73151,0.64124,0.73558,0.58653,0.53916,0.54741,0.31417,0.09844,0.00642,0.00000,0.00000,0.00000,0.00000,0.00000,0.00000,0.00000,0.00000,0.00000,0.00000,0.00000,0.00000,0.04736,0.11489,0.46780,0.74488,0.80329,0.69865,0.81709,0.70758,0.54182,0.32361,0.09663,0.00595,0.00000,0.00000,0.00000,0.00000,0.00000,0.00000,0.00000,0.00000,0.00000,0.00000,0.00000,0.00000,0.02786,0.11115,0.21979,0.44386,0.80883,0.84433,0.56884,0.69878,0.52378,0.30988,0.09198,0.00569,0.00000,0.00000,0.00000,0.00000,0.00000,0.00000,0.00000,0.00000,0.00000,0.00000,0.00000,0.00000,0.03531,0.12946,0.43508,0.56835,0.68457,0.62888,0.67062,0.53751,0.49043,0.16907,0.05774,0.00285,0.00000,0.00000,0.00000,0.00000,0.00000,0.00000,0.00000,0.00000,0.00000,0.00000,0.00000,0.00000,0.04045,0.06776,0.13112,0.22331,0.26103,0.24400,0.15953,0.19829,0.17451,0.29131,0.06747,0.00471,0.00000,0.00000,0.00000,0.00000,0.00000,0.00000,0.00000,0.00000,0.00000,0.00000,0.00000,0.00000,0.09214,0.35395,0.59270,0.75876,0.85002,0.87125,0.82476,0.70939,0.53704,0.31081,0.08677,0.00439,0.00000,0.00000,0.00000,0.00000,0.00000,0.00000,0.00000,0.00000,0.00000,0.00000,0.00000,0.00000,0.09018,0.34287,0.56457,0.71891,0.80860,0.82626,0.77694,0.67027,0.49932,0.23334,0.04989,0.00297,0.00000,0.00000,0.00000,0.00000,0.00000,0.00000,0.00000,0.00000,0.00000,0.00000,0.00000,0.00000,0.07961,0.31781,0.52880,0.68824,0.74398,0.80957,0.69939,0.56913,0.47982,0.24504,0.08654,0.00394,0.00000,0.00000,0.00000,0.00000,0.00000,0.00000,0.00000,0.00000,0.00000,0.00000,0.00000,0.00000,0.01992,0.09013,0.15907,0.50804,0.78411,0.80131,0.63366,0.00000,0.00000,0.00000,0.00000,0.00000,0.00000,0.00000,0.00000,0.00000,0.00000,0.00000,0.00000,0.00000,0.00000,0.00000,0.00000,0.00000,0.03810,0.28091,0.52746,0.68106,0.75479,0.77714,0.72419,0.62361,0.46849,0.27006,0.07009,0.00310,0.00000,0.00000,0.00000,0.00000,0.00000,0.00000,0.00000,0.00000,0.00000,0.00000,0.00000,0.00000,0.07824,0.31963,0.52103,0.65695,0.72962,0.73842,0.70007,0.60441,0.45250,0.25668,0.06674,0.00300,0.00000,0.00000,0.00000,0.00000,0.00000,0.00000,0.00000,0.00000,0.00000,0.00000,0.00000,0.00000,0.07430,0.31006,0.50494,0.64352,0.71784,0.73326,0.69267,0.59973,0.45075,0.25309,0.06491,0.00278,0.00000,0.00000,0.00000,0.00000,0.00000,0.00000,0.00000,0.00000,0.00000,0.00000,0.00000,0.00000,0.06999,0.29560,0.49363,0.63018,0.69419,0.61335,0.68413,0.59633,0.43337,0.24061,0.06203,0.00267,0.00000,0.00000,0.00000,0.00000,0.00000,0.00000,0.00000,0.00000,0.00000,0.00000,0.00000,0.00000,0.06208,0.29025,0.49125,0.63322,0.71221,0.72834,0.68472,0.58310,0.42860,0.22835,0.05991,0.00188,0.00000,0.00000,0.00000,0.00000,0.00000,0.00000,0.00000,0.00000,0.00000,0.00000,0.00000,0.00000,0.06392,0.28852,0.49557,0.64703,0.73228,0.74209,0.70085,0.60084,0.44229,0.24141,0.05853,0.00216,0.00000,0.00000,0.00000,0.00000,0.00000,0.00000,0.00000,0.00000,0.00000,0.00000,0.00000,0.00000,0.06924,0.28848,0.44851,0.62952,0.69899,0.70869,0.66780,0.56719,0.40696,0.21882,0.05635,0.00186,0.00000,0.00000,0.00000,0.00000,0.00000,0.00000,0.00000,0.00000,0.00000,0.00000,0.00000,0.00000,0.00279,0.00965,0.07106,0.09876,0.13734,0.07260,0.14096,0.17348,0.12535,0.05727,0.02061,0.00073,0.00000,0.00000,0.00000,0.00000,0.00000,0.00000,0.00000,0.00000,0.00000,0.00000,0.00000,0.00000,0.01668,0.12294,0.23909,0.28594,0.34247,0.43861,0.38765,0.25824,0.23860,0.09200,0.02990,0.00160,0.00000,0.00000,0.00000,0.00000,0.00000,0.00000,0.00000,0.00000,0.00000,0.00000,0.00000,0.00000,0.06476,0.21595,0.36897,0.65708,0.73744,0.75662,0.71402,0.54088,0.41553,0.12370,0.05409,0.00157,0.00000,0.00000,0.00000,0.00000,0.00000,0.00000,0.00000,0.00000,0.00000,0.00000,0.00000,0.00000,0.00509,0.03123,0.10479,0.23887,0.39186,0.58060,0.57666,0.48460,0.43848,0.23621,0.05657,0.00148,0.00000,0.00000,0.00000,0.00000,0.00000,0.00000,0.00000,0.00000,0.00000,0.00000,0.00000,0.00000,0.05675,0.30319,0.51555,0.68545,0.69438,0.68429,0.69765,0.60886,0.46347,0.27662,0.04608,0.00129,0.00000,0.00000,0.00000,0.00000,0.00000,0.00000,0.00000,0.00000,0.00000,0.00000,0.00000,0.00000,0.03830,0.25522,0.50434,0.64744,0.72647,0.73387,0.69717,0.60649,0.45200,0.24283,0.05112,0.00136,0.00000,0.00000,0.00000,0.00000,0.00000,0.00000,0.00000,0.00000,0.00000,0.00000,0.00000,0.00000,0.05307,0.31071,0.53289,0.68675,0.74612,0.78947,0.73989,0.63053,0.46265,0.25066,0.05179,0.00138,0.00000,0.00000,0.00000,0.00000,0.00000,0.00000,0.00000,0.00000,0.00000,0.00000,0.00000,0.00000,0.05178,0.30676,0.52354,0.66586,0.74894,0.76809,0.72503,0.61922,0.45480,0.23418,0.03414,0.00118,0.00000,0.00000,0.00000,0.00000,0.00000,0.00000,0.00000,0.00000,0.00000,0.00000,0.00000,0.00000,0.03690,0.08319,0.14268,0.20048,0.20465,0.20129,0.19415,0.35624,0.06261,0.00680,0.00595,0.00030,0.00000,0.00000,0.00000,0.00000,0.00000,0.00000,0.00000,0.00000,0.00000,0.00000,0.00000,0.00000,0.00124,0.01177,0.03964,0.10879,0.07650,0.05513,0.08129,0.10815,0.10622,0.08519,0.02483,0.00048,0.00000,0.00000,0.00000,0.00000,0.00000,0.00000,0.00000,0.00000,0.00000,0.00000,0.00000,0.00000,0.04520,0.19010,0.34214,0.49793,0.41737,0.59146,0.55870,0.70147,0.47727,0.21955,0.04447,0.00089,0.00000,0.00000,0.00000,0.00000,0.00000,0.00000,0.00000,0.00000,0.00000,0.00000,0.00000,0.00000,0.04422,0.30091,0.52954,0.68015,0.77544,0.72631,0.71761,0.62499,0.45704,0.24163,0.04556,0.00093,0.00000,0.00000,0.00000,0.00000,0.00000,0.00000,0.00000,0.00000,0.00000,0.00000,0.00000,0.00000,0.04124,0.29533,0.51984,0.66695,0.74327,0.75229,0.69859,0.59318,0.43315,0.22269,0.03128,0.00079,0.00000,0.00000,0.00000,0.00000,0.00000,0.00000,0.00000,0.00000,0.00000,0.00000,0.00000,0.00000,0.04107,0.29338,0.52043,0.64179,0.72219,0.73798,0.70791,0.58023,0.41914,0.20436,0.05177,0.00101,0.00000,0.00000,0.00000,0.00000,0.00000,0.00000,0.00000,0.00000,0.00000,0.00000,0.00000,0.00000,0.03549,0.28001,0.46431,0.69292,0.73203,0.38476,0.32409,0.47132,0.32396,0.16442,0.03534,0.00085,0.00000,0.00000,0.00000,0.00000,0.00000,0.00000,0.00000,0.00000,0.00000,0.00000,0.00000,0.00000,0.03038,0.15376,0.36301,0.56659,0.48671,0.34279,0.14363,0.16327,0.07579,0.03980,0.00697,0.00057,0.00000,0.00000,0.00000,0.00000,0.00000,0.00000,0.00000,0.00000,0.00000,0.00000,0.00000,0.00000,0.00000,0.00263,0.00899,0.01194,0.01097,0.00851,0.00910,0.01754,0.01979,0.01085,0.00240,0.00000,0.00000,0.00000,0.00000,0.00000,0.00000,0.00000,0.00000,0.00000,0.00000,0.00000,0.00000,0.00000,0.01450,0.04331,0.13321,0.11502,0.07986,0.11385,0.13618,0.11825,0.06198,0.04132,0.01736,0.00039,0.00000,0.00000,0.00000,0.00000,0.00000,0.00000,0.00000,0.00000,0.00000,0.00000,0.00000,0.00000,0.02420,0.25725,0.51119,0.65166,0.73509,0.75914,0.66889,0.61240,0.44645,0.22659,0.03780,0.00077,0.00000,0.00000,0.00000,0.00000,0.00000,0.00000,0.00000,0.00000,0.00000,0.00000,0.00000,0.00000,0.03043,0.29458,0.52258,0.66415,0.73752,0.75379,0.71116,0.56647,0.43057,0.18622,0.03184,0.00067,0.00000,0.00000,0.00000,0.00000,0.00000,0.00000,0.00000,0.00000,0.00000,0.00000,0.00000,0.00000,0.02567,0.26562,0.47989,0.63113,0.70495,0.71244,0.65775,0.55823,0.40502,0.19965,0.03298,0.00051,0.00000,0.00000,0.00000,0.00000,0.00000,0.00000,0.00000,0.00000,0.00000,0.00000,0.00000,0.00000,0.02475,0.26931,0.48087,0.61766,0.68993,0.71530,0.67441,0.56822,0.41002,0.20443,0.03317,0.00053,0.00000,0.00000,0.00000,0.00000,0.00000,0.00000,0.00000,0.00000,0.00000,0.00000,0.00000,0.00000,0.02200,0.25977,0.47791,0.61399,0.68947,0.70662,0.66609,0.56795,0.40803,0.20041,0.03150,0.00050,0.00000,0.00000,0.00000,0.00000,0.00000,0.00000,0.00000,0.00000,0.00000,0.00000,0.00000,0.00000,0.00716,0.08750,0.41798,0.60556,0.68170,0.71007,0.66134,0.55215,0.39602,0.19324,0.03011,0.00039,0.00000,0.00000,0.00000,0.00000,0.00000,0.00000,0.00000,0.00000,0.00000,0.00000,0.00000,0.00000,0.02150,0.21221,0.45583,0.60910,0.69152,0.70772,0.66724,0.52819,0.36656,0.14502,0.02323,0.00029,0.00000,0.00000,0.00000,0.00000,0.00000,0.00000,0.00000,0.00000,0.00000,0.00000,0.00000,0.00000,0.00000,0.00000,0.00522,0.00279,0.00241,0.03057,0.06261,0.01566,0.00710,0.00241,0.00082,0.00000,0.00000,0.00000,0.00000,0.00000,0.00000,0.00000,0.00000,0.00000,0.00000,0.00000,0.00000,0.00000,0.00063,0.02772,0.05169,0.08506,0.10933,0.03660,0.05151,0.09730,0.14583,0.04800,0.00917,0.00030,0.00000,0.00000,0.00000,0.00000,0.00000,0.00000,0.00000,0.00000,0.00000,0.00000,0.00000,0.00000,0.03347,0.06961,0.05657,0.12754,0.15971,0.20292,0.17131,0.10526,0.07394,0.03487,0.00554,0.00019,0.00000,0.00000,0.00000,0.00000,0.00000,0.00000,0.00000,0.00000,0.00000,0.00000,0.00000,0.00000,0.00912,0.09506,0.13754,0.29301,0.37753,0.65563,0.43142,0.46781,0.31047,0.10668,0.01154,0.00034,0.00000,0.00000,0.00000,0.00000,0.00000,0.00000,0.00000,0.00000,0.00000,0.00000,0.00000,0.00000,0.01086,0.24051,0.47041,0.63868,0.72086,0.75631,0.70610,0.58906,0.39436,0.19892,0.02952,0.00048,0.00000,0.00000,0.00000,0.00000,0.00000,0.00000,0.00000,0.00000,0.00000,0.00000,0.00000,0.00000,0.01048,0.08938,0.32847,0.26620,0.33749,0.55260,0.71382,0.56572,0.42025,0.19456,0.02616,0.00048,0.00000,0.00000,0.00000,0.00000,0.00000,0.00000,0.00000,0.00000,0.00000,0.00000,0.00000,0.00000,0.00976,0.24284,0.45792,0.60645,0.68556,0.70331,0.65669,0.55393,0.39486,0.19120,0.02782,0.00048,0.00000,0.00000,0.00000,0.00000,0.00000,0.00000,0.00000,0.00000,0.00000,0.00000,0.00000,0.00000,0.01044,0.23828,0.46006,0.60976,0.67950,0.69251,0.64792,0.54360,0.38831,0.18630,0.02699,0.00048,0.00000,0.00000,0.00000,0.00000,0.00000,0.00000,0.00000,0.00000,0.00000,0.00000,0.00000,0.00000,0.00943,0.23974,0.44917,0.59482,0.65941,0.68764,0.64330,0.53320,0.35818,0.16341,0.02808,0.00029,0.00000,0.00000,0.00000,0.00000,0.00000,0.00000,0.00000,0.00000,0.00000,0.00000,0.00000,0.00000,0.01222,0.20144,0.41012,0.55202,0.61540,0.66532,0.64831,0.51975,0.37715,0.15814,0.02395,0.00030,0.00000,0.00000,0.00000,0.00000,0.00000,0.00000,0.00000,0.00000,0.00000,0.00000,0.00000,0.00000,0.00000,0.01022,0.11578,0.26315,0.27497,0.25974,0.30003,0.08526,0.05099,0.01930,0.00647,0.00000,0.00000,0.00000,0.00000,0.00000,0.00000,0.00000,0.00000,0.00000,0.00000,0.00000,0.00000,0.00000,0.00372,0.08615,0.46257,0.32943,0.57727,0.70156,0.57672,0.45770,0.27566,0.09883,0.01736,0.00009,0.00000,0.00000,0.00000,0.00000,0.00000,0.00000,0.00000,0.00000,0.00000,0.00000,0.00000,0.00000,0.00729,0.22792,0.45816,0.60229,0.67645,0.56684,0.41571,0.32782,0.33293,0.20849,0.02834,0.00029,0.00000,0.00000,0.00000,0.00000,0.00000,0.00000,0.00000,0.00000,0.00000,0.00000,0.00000,0.00000,0.00799,0.09542,0.19624,0.25404,0.68336,0.70988,0.66855,0.55845,0.39615,0.18666,0.02603,0.00027,0.00000,0.00000,0.00000,0.00000,0.00000,0.00000,0.00000,0.00000,0.00000,0.00000,0.00000,0.00000,0.00116,0.04761,0.14121,0.20975,0.58248,0.67650,0.61887,0.52194,0.36694,0.14987,0.01427,0.00019,0.00000,0.00000,0.00000,0.00000,0.00000,0.00000,0.00000,0.00000,0.00000,0.00000,0.00000,0.00000,0.00000,0.00000,0.02981,0.07770,0.09620,0.06931,0.10550,0.03957,0.06279,0.02743,0.01306,0.00000,0.00000,0.00000,0.00000,0.00000,0.00000,0.00000,0.00000,0